[TITLE]
EPANET Example (Goyang in Original) 

[JUNCTIONS]
 1                                    71.0000
 2                                    56.4000
 3                                    53.8000
 4                                    54.9000
 5                                    56.0000
 6                                    57.0000
 7                                    53.9000
 8                                    54.5000
 9                                    57.9000
 10                                   62.1000
 11                                   62.8000
 12                                   58.6000
 13                                   59.3000
 14                                   59.8000
 15                                   59.2000
 16                                   53.6000
 17                                   54.8000
 18                                   55.1000
 19                                   54.2000
 20                                   54.5000
 21                                   62.9000
 22                                   61.8000

[RESERVOIRS]
 30                                   71.0000 

[TANKS]

[PIPES]
 1                               1                               2                                   165.0000     200.0000     100.0000       0.0000 
 2                               2                               3                                   124.0000     200.0000     100.0000       0.0000 
 3                               3                               4                                   118.0000     150.0000     100.0000       0.0000 
 4                               4                               5                                    81.0000     150.0000     100.0000       0.0000 
 5                               5                               6                                   134.0000     150.0000     100.0000       0.0000 
 6                               6                               12                                  135.0000     100.0000     100.0000       0.0000 
 7                               12                              15                                  202.0000      80.0000     100.0000       0.0000 
 8                               2                               22                                  135.0000     100.0000     100.0000       0.0000 
 9                               2                               21                                  170.0000      80.0000     100.0000       0.0000 
 10                              21                              22                                  113.0000      80.0000     100.0000       0.0000 
 11                              22                              20                                  335.0000      80.0000     100.0000       0.0000 
 12                              19                              20                                  115.0000      80.0000     100.0000       0.0000 
 13                              2                               19                                  345.0000      80.0000     100.0000       0.0000 
 14                              19                              17                                  114.0000      80.0000     100.0000       0.0000 
 15                              3                               16                                  103.0000     100.0000     100.0000       0.0000 
 16                              16                              17                                  261.0000      80.0000     100.0000       0.0000 
 17                              17                              18                                   72.0000      80.0000     100.0000       0.0000 
 18                              7                               18                                  373.0000      80.0000     100.0000       0.0000 
 19                              3                               7                                    98.0000      80.0000     100.0000       0.0000 
 20                              7                               8                                   110.0000      80.0000     100.0000       0.0000 
 21                              4                               8                                    98.0000      80.0000     100.0000       0.0000 
 22                              8                               9                                   246.0000      80.0000     100.0000       0.0000 
 23                              5                               11                                  174.0000      80.0000     100.0000       0.0000 
 24                              10                              11                                  102.0000      80.0000     100.0000       0.0000 
 25                              6                               10                                   92.0000      80.0000     100.0000       0.0000 
 26                              6                               9                                   100.0000      80.0000     100.0000       0.0000 
 27                              10                              13                                  130.0000      80.0000     100.0000       0.0000 
 28                              12                              13                                   90.0000      80.0000     100.0000       0.0000 
 29                              13                              14                                  185.0000      80.0000     100.0000       0.0000 
 30                              15                              14                                   90.0000      80.0000     100.0000       0.0000 

[PUMPS]
 70                              30                              1                                POWER 4.5200

[VALVES]

[DEMANDS]
 1                                     0.000000 
 2                                     1.771000 
 3                                     0.816000 
 4                                     0.677000 
 5                                     0.868000 
 6                                     0.781000 
 7                                     0.729000 
 8                                     0.556000 
 9                                     0.486000 
 10                                    0.347000 
 11                                    0.486000 
 12                                    0.434000 
 13                                    0.434000 
 14                                    0.729000 
 15                                    5.156000 
 16                                    1.250000 
 17                                    0.920000 
 18                                    0.642000 
 19                                    1.372000 
 20                                    1.441000 
 21                                    0.365000 
 22                                    9.253000 

[EMITTERS]

[STATUS]

[PATTERNS]

[CURVES]

[CONTROLS]

[QUALITY]

[SOURCES]

[MIXING]

[REACTIONS]
 ORDER  BULK            1.00
 ORDER  WALL            1
 ORDER  TANK            1.00
 GLOBAL BULK            0.000000
 GLOBAL WALL            0.000000

[ENERGY]
 GLOBAL EFFIC        75.0000
 DEMAND CHARGE       0.0000

[TIMES]
 DURATION            0:00:00
 HYDRAULIC TIMESTEP  1:00:00
 QUALITY TIMESTEP    0:06:00
 REPORT TIMESTEP     1:00:00
 REPORT START        0:00:00
 PATTERN TIMESTEP    1:00:00
 PATTERN START       0:00:00
 RULE TIMESTEP       0:06:00
 START CLOCKTIME     0:00:00
 STATISTIC           NONE

[OPTIONS]
 UNITS               LPS
 PRESSURE            METERS
 HEADLOSS            H-W
 UNBALANCED          STOP
 QUALITY             NONE
 DEMAND MULTIPLIER   1.0000
 EMITTER EXPONENT    0.5000
 VISCOSITY           1.000000
 DIFFUSIVITY         1.000000
 SPECIFIC GRAVITY    1.000000
 TRIALS              200
 ACCURACY            0.00100000
 TOLERANCE           0.01000000
 CHECKFREQ           2
 MAXCHECK            10
 DAMPLIMIT           0.00000000

[REPORT]
 PAGESIZE            0
 STATUS              NO
 SUMMARY             YES
 ENERGY              NO
 MESSAGES            YES
 NODES               NONE
 LINKS               NONE
 Elevation           NO
 Demand              PRECISION 2
 Head                PRECISION 2
 Pressure            PRECISION 2
 Quality             NO
 Length              NO
 Diameter            NO
 Flow                PRECISION 2
 Velocity            PRECISION 2
 Headloss            PRECISION 2
 Quality             NO
 State               NO
 Setting             NO
 Reaction            NO



[COORDINATES]
 2               	-533.90         	5474.58         
 3               	-516.95         	4271.19         
 4               	957.63          	4288.14         
 5               	2313.56         	4288.14         
 6               	3567.80         	4288.14         
 7               	-533.90         	2983.05         
 8               	872.88          	3016.95         
 9               	3550.85         	2898.31         
 10              	3567.80         	5983.05         
 11              	3516.95         	7661.02         
 12              	5025.42         	4288.14         
 13              	4974.58         	6084.75         
 14              	6279.66         	6084.75         
 15              	6228.81         	4288.14         
 16              	-1686.44        	4254.24         
 17              	-2788.14        	4305.08         
 18              	-2838.98        	2898.31         
 19              	-2788.14        	5525.42         
 20              	-2737.29        	7254.24         
 21              	788.14          	7389.83         
 22              	-635.59         	7305.08         
 1               	974.58          	5576.27
 30              	2000.00         	6700 
[END]
